
**** 06/12/13 02:45:06 ************** PSpice Lite (Mar 2000) *****************

 ** Profile: "SCHEMATIC1-bias"  [ C:\Users\Archit\Desktop\PSPICE Simulations\Schmitt circuit 1\using netlist\schmitt circuit 1-schema


 ****     CIRCUIT DESCRIPTION


******************************************************************************




** Creating circuit file "schmitt circuit 1-schematic1-bias.sim.cir" 
** WARNING: THIS AUTOMATICALLY GENERATED FILE MAY BE OVERWRITTEN BY SUBSEQUENT SIMULATIONS

*Libraries: 
* Local Libraries :
* From [PSPICE NETLIST] section of C:\Program Files\OrcadLite\PSpice\PSpice.ini file:
.lib "nom.lib" 

*Analysis directives: 
.TEMP 26
.PROBE V(*) I(*) W(*) D(*) NOISE(*) 
.INC ".\schmitt circuit 1-SCHEMATIC1.net" 



**** INCLUDING "schmitt circuit 1-SCHEMATIC1.net" ****
* source SCHMITT CIRCUIT 1   

.model nbjt NPN IS = 1E-16 BF = 100 BR = 1

q1 1 5 2 nbjt
q2 3 4 2 nbjt
rc1 6 1 2e3
rc2 6 3 1e3
r3 1 4 10e3
re 2 0 100
vcc 6 0 10
vin 5 0 1.5

.nodeset v(1) = 5 v(2) = 5 v(3) = 0  
.op  

**** RESUMING "schmitt circuit 1-schematic1-bias.sim.cir" ****
.END

**** 06/12/13 02:45:06 ************** PSpice Lite (Mar 2000) *****************

 ** Profile: "SCHEMATIC1-bias"  [ C:\Users\Archit\Desktop\PSPICE Simulations\Schmitt circuit 1\using netlist\schmitt circuit 1-schema


 ****     BJT MODEL PARAMETERS


******************************************************************************




               nbjt            
               NPN             
          IS  100.000000E-18 
          BF  100            
          NF    1            
          BR    1            
          NR    1            
          CN    2.42         
           D     .87         


**** 06/12/13 02:45:06 ************** PSpice Lite (Mar 2000) *****************

 ** Profile: "SCHEMATIC1-bias"  [ C:\Users\Archit\Desktop\PSPICE Simulations\Schmitt circuit 1\using netlist\schmitt circuit 1-schema


 ****     TEMPERATURE-ADJUSTED VALUES      TEMPERATURE =   26.000 DEG C


******************************************************************************




 **** BJT MODEL PARAMETERS

                    nbjt      

         BF        1.000E+02  
        ISE        0.000E+00  
        VJE        7.517E-01  
        CJE        0.000E+00  
         RE        0.000E+00  
         RB        0.000E+00  
         BR        1.000E+00  
        ISC        0.000E+00  
        VJC        7.517E-01  
        CJC        0.000E+00  
         RC        0.000E+00  
        RBM        0.000E+00  
         IS        8.577E-17  
        ISS        0.000E+00  
        VJS        7.517E-01  
        CJS        0.000E+00  
      GAMMA        1.000E-11  
        RCO        0.000E+00  
         VO        1.000E+01  


**** 06/12/13 02:45:06 ************** PSpice Lite (Mar 2000) *****************

 ** Profile: "SCHEMATIC1-bias"  [ C:\Users\Archit\Desktop\PSPICE Simulations\Schmitt circuit 1\using netlist\schmitt circuit 1-schema


 ****     SMALL SIGNAL BIAS SOLUTION       TEMPERATURE =   26.000 DEG C


******************************************************************************



 NODE   VOLTAGE     NODE   VOLTAGE     NODE   VOLTAGE     NODE   VOLTAGE


(    1)    8.6331  (    2)     .9645  (    3)    1.0382  (    4)    1.7998      

(    5)    1.5000  (    6)   10.0000  




    VOLTAGE SOURCE CURRENTS
    NAME         CURRENT

    vcc         -9.645E-03
    vin         -8.939E-10

    TOTAL POWER DISSIPATION   9.65E-02  WATTS


**** 06/12/13 02:45:06 ************** PSpice Lite (Mar 2000) *****************

 ** Profile: "SCHEMATIC1-bias"  [ C:\Users\Archit\Desktop\PSPICE Simulations\Schmitt circuit 1\using netlist\schmitt circuit 1-schema


 ****     OPERATING POINT INFORMATION      TEMPERATURE =   26.000 DEG C


******************************************************************************






**** BIPOLAR JUNCTION TRANSISTORS


NAME         q1          q2        
MODEL        nbjt        nbjt      
IB           8.94E-10    6.83E-04 
IC           9.01E-08    8.96E-03 
VBE          5.35E-01    8.35E-01 
VBC         -7.13E+00    7.62E-01 
VCE          7.67E+00    7.36E-02 
BETADC       1.01E+02    1.31E+01 
GM           3.50E-06    3.70E-01 
RPI          2.86E+07    2.55E+02 
RX           0.00E+00    0.00E+00 
RO           1.00E+12    4.43E+01 
CBE          0.00E+00    0.00E+00 
CBC          0.00E+00    0.00E+00 
CJS          0.00E+00    0.00E+00 
BETAAC       1.00E+02    9.43E+01 
CBX/CBX2     0.00E+00    0.00E+00 
FT/FT2       5.56E+13    5.89E+18 



          JOB CONCLUDED

          TOTAL JOB TIME             .02
