
**** 07/18/13 11:31:37 ************** PSpice Lite (Mar 2000) *****************

 ** Profile: "SCHEMATIC1-bias"  [ C:\Users\Archit\Desktop\PSPICE Simulations\Schmitt circuit 2\using netlist\schmitt circuit 2-schema


 ****     CIRCUIT DESCRIPTION


******************************************************************************




** Creating circuit file "schmitt circuit 2-schematic1-bias.sim.cir" 
** WARNING: THIS AUTOMATICALLY GENERATED FILE MAY BE OVERWRITTEN BY SUBSEQUENT SIMULATIONS

*Libraries: 
* Local Libraries :
* From [PSPICE NETLIST] section of C:\Program Files\OrcadLite\PSpice\PSpice.ini file:
.lib "nom.lib" 

*Analysis directives: 
.TEMP 26
.PROBE V(*) I(*) W(*) D(*) NOISE(*) 
.INC ".\schmitt circuit 2-SCHEMATIC1.net" 



**** INCLUDING "schmitt circuit 2-SCHEMATIC1.net" ****
* Schmitt Trigger circuit no. 2

.model nbjt NPN IS=1e-16 BF=100 BR=1

q1   2  5  1  nbjt
q2   3  4  1  nbjt
rc1  6  2     1.5e3
rc2  6  3     1e3
r1   2  4     10e3
re   1  0     100
r2   5  6     5e3
r3   5  0     1.25e3
r4   4  0     1e6
vcc  6  0     10

  .nodeset v(1)=0 v(2)=0 v(3)=5 
* .nodeset v(1)=0 v(2)=5 v(3)=5 
* .nodeset v(1)=5 v(2)=0 v(3)=5 

.op

**** RESUMING "schmitt circuit 2-schematic1-bias.sim.cir" ****
.END

**** 07/18/13 11:31:37 ************** PSpice Lite (Mar 2000) *****************

 ** Profile: "SCHEMATIC1-bias"  [ C:\Users\Archit\Desktop\PSPICE Simulations\Schmitt circuit 2\using netlist\schmitt circuit 2-schema


 ****     BJT MODEL PARAMETERS


******************************************************************************




               nbjt            
               NPN             
          IS  100.000000E-18 
          BF  100            
          NF    1            
          BR    1            
          NR    1            
          CN    2.42         
           D     .87         


**** 07/18/13 11:31:37 ************** PSpice Lite (Mar 2000) *****************

 ** Profile: "SCHEMATIC1-bias"  [ C:\Users\Archit\Desktop\PSPICE Simulations\Schmitt circuit 2\using netlist\schmitt circuit 2-schema


 ****     TEMPERATURE-ADJUSTED VALUES      TEMPERATURE =   26.000 DEG C


******************************************************************************




 **** BJT MODEL PARAMETERS

                    nbjt      

         BF        1.000E+02  
        ISE        0.000E+00  
        VJE        7.517E-01  
        CJE        0.000E+00  
         RE        0.000E+00  
         RB        0.000E+00  
         BR        1.000E+00  
        ISC        0.000E+00  
        VJC        7.517E-01  
        CJC        0.000E+00  
         RC        0.000E+00  
        RBM        0.000E+00  
         IS        8.577E-17  
        ISS        0.000E+00  
        VJS        7.517E-01  
        CJS        0.000E+00  
      GAMMA        1.000E-11  
        RCO        0.000E+00  
         VO        1.000E+01  


**** 07/18/13 11:31:37 ************** PSpice Lite (Mar 2000) *****************

 ** Profile: "SCHEMATIC1-bias"  [ C:\Users\Archit\Desktop\PSPICE Simulations\Schmitt circuit 2\using netlist\schmitt circuit 2-schema


 ****     SMALL SIGNAL BIAS SOLUTION       TEMPERATURE =   26.000 DEG C


******************************************************************************



 NODE   VOLTAGE     NODE   VOLTAGE     NODE   VOLTAGE     NODE   VOLTAGE


(    1)     .6679  (    2)     .7396  (    3)   10.0000  (    4)     .7323      

(    5)    1.4938  (    6)   10.0000  




    VOLTAGE SOURCE CURRENTS
    NAME         CURRENT

    vcc         -7.875E-03

    TOTAL POWER DISSIPATION   7.87E-02  WATTS


**** 07/18/13 11:31:37 ************** PSpice Lite (Mar 2000) *****************

 ** Profile: "SCHEMATIC1-bias"  [ C:\Users\Archit\Desktop\PSPICE Simulations\Schmitt circuit 2\using netlist\schmitt circuit 2-schema


 ****     OPERATING POINT INFORMATION      TEMPERATURE =   26.000 DEG C


******************************************************************************






**** BIPOLAR JUNCTION TRANSISTORS


NAME         q1          q2        
MODEL        nbjt        nbjt      
IB           5.06E-04   -9.27E-12 
IC           6.17E-03    1.86E-11 
VBE          8.26E-01    6.44E-02 
VBC          7.54E-01   -9.27E+00 
VCE          7.17E-02    9.33E+00 
BETADC       1.22E+01   -2.01E+00 
GM           2.56E-01    4.05E-14 
RPI          3.66E+02    9.61E+13 
RX           0.00E+00    0.00E+00 
RO           5.92E+01    1.00E+12 
CBE          0.00E+00    0.00E+00 
CBC          0.00E+00    0.00E+00 
CJS          0.00E+00    0.00E+00 
BETAAC       9.38E+01    3.89E+00 
CBX/CBX2     0.00E+00    0.00E+00 
FT/FT2       4.08E+18    6.44E+05 



          JOB CONCLUDED

          TOTAL JOB TIME            0.00
